<routes>
   <vType id="car"
   			vClass="passenger" length="5" accel="3.5" decel="2.2"
   			sigma="0.8" maxSpeed="10"/>

   <vType id="ev"
      		vClass="emergency" length="7" accel="5.5" decel="2.2" sigma="0.8"
      		maxSpeed="20" guiShape="emergency" speedFactor="2.0"
      		minGapLat="0.2"/>

    <route id="route_0" edges="eA_H eH_I eI_D eD_C eC_B eB_A eA_H eH_I eI_D eD_C eC_B eB_A eA_H eH_I eI_D eD_C eC_B eB_A eA_H eH_I eI_D eD_C eC_B eB_A" />
    <!--<flow id="carflow" type="car" beg="0" end="0" number="5" from="e1" to="e8"/>-->
    <!--<flow id="evflow" type="ev" beg="0" end="0" number="1" from="e1" to="e8"/>-->

<!--
    <vehicle id="0" type="car" route="route_0" depart="0"/> 
    <vehicle id="1" type="car" route="route_0" depart="3"/>
    <vehicle id="2" type="car" route="route_0" depart="6"/>
    <vehicle id="3" type="car" route="route_0" depart="9"/>
    <vehicle id="4" type="car" route="route_0" depart="12"/>

    <vehicle id="ev_0" type="ev" route="route_0" depart="16"/>
-->

<!--Flows at 0 delay-->
<flow id="flow_1" type="car" beg="0" end="0" number="15"  departLane="random"  color="223, 59, 229">
    <route edges="eA_H eH_I eI_D eD_C eC_B eB_A" repeat="10" />
</flow>

<flow id="flow_2" type="car" beg="0" end="0" number="15"  departLane="random" color="4, 168, 159">
    <route edges="eH_G eG_F eF_E eE_D eD_I eI_H" repeat="10" />
</flow>

<flow id="flow_3" type="car" beg="0" end="0" number="15"  departLane="random" color="22, 166, 165">
    <route edges="eA_B eB_I eI_F eF_G eG_H eH_A" repeat="10" />
</flow>

<flow id="flow_4" type="car" beg="0" end="0" number="15"  departLane="random" color="210, 230, 191">
    <route edges="eE_F eF_I eI_B eB_C eC_D eD_E" repeat="10" />
</flow>

<!--Flows at 30 delay
<flow id="flow_1_a" type="car" beg="30" end="0" number="15"  departLane="random"  color="0,237,241">
    <route edges="eA_H eH_I eI_D eD_C eC_B eB_A" repeat="10" />
</flow>

<flow id="flow_2_a" type="car" beg="30" end="0" number="15"  departLane="random" color="42,131,42">
    <route edges="eH_G eG_F eF_E eE_D eD_I eI_H" repeat="10" />
</flow>

<flow id="flow_3_a" type="car" beg="30" end="0" number="15"  departLane="random" color="198,122,239">
    <route edges="eA_B eB_I eI_F eF_G eG_H eH_A" repeat="10" />
</flow>

<flow id="flow_4_a" type="car" beg="30" end="0" number="15"  departLane="random" color="60,177,200">
    <route edges="eE_F eF_I eI_B eB_C eC_D eD_E" repeat="10" />
</flow>

-->
</routes>
