<?xml version="1.0" encoding="UTF-8"?>

<!-- generated on Wed Mar 10 22:09:06 2021 by Eclipse SUMO netedit Version 1.8.0
<configuration xmlns:xsi="http://www.w3.org/2001/XMLSchema-instance" xsi:noNamespaceSchemaLocation="http://sumo.dlr.de/xsd/netconvertConfiguration.xsd">

    <input>
        <sumo-net-file value="/Users/umer/Documents/SUMO-Learning/Project6/network.net.xml"/>
    </input>

    <output>
        <output-file value="/Users/umer/Documents/SUMO-Learning/Project6/network.net.xml"/>
    </output>

    <processing>
        <geometry.min-radius.fix.railways value="false"/>
        <geometry.max-grade.fix value="false"/>
        <offset.disable-normalization value="true"/>
        <lefthand value="true"/>
    </processing>

    <junctions>
        <no-turnarounds value="true"/>
        <junctions.corner-detail value="5"/>
        <junctions.limit-turn-speed value="5.5"/>
        <rectangular-lane-cut value="false"/>
    </junctions>

    <pedestrian>
        <walkingareas value="false"/>
    </pedestrian>

    <report>
        <aggregate-warnings value="5"/>
    </report>

</configuration>
-->

<net version="1.6" junctionCornerDetail="5" lefthand="true" limitTurnSpeed="5.50" xmlns:xsi="http://www.w3.org/2001/XMLSchema-instance" xsi:noNamespaceSchemaLocation="http://sumo.dlr.de/xsd/net_file.xsd">

    <location netOffset="750.00,750.00" convBoundary="1300.00,500.00,1611.17,700.00" origBoundary="-750.00,-750.00,750.00,750.00" projParameter="!"/>

    <type id="4L13" priority="-1" numLanes="4" speed="13.89"/>

    <edge id=":A_0" function="internal">
        <lane id=":A_0_0" index="0" speed="11.77" length="31.90" shape="1295.20,684.16 1296.38,693.19 1299.93,699.64 1305.84,703.51 1314.11,704.80"/>
    </edge>
    <edge id=":A_1" function="internal">
        <lane id=":A_1_0" index="0" speed="10.81" length="26.74" shape="1298.40,684.16 1299.38,691.79 1302.33,697.24 1307.24,700.51 1314.11,701.60"/>
    </edge>
    <edge id=":A_2" function="internal">
        <lane id=":A_2_0" index="0" speed="7.42" length="6.24" shape="1298.40,684.16 1299.85,689.17 1300.69,689.76"/>
    </edge>
    <edge id=":A_8" function="internal">
        <lane id=":A_8_0" index="0" speed="7.42" length="13.50" shape="1300.69,689.76 1303.44,691.68 1308.08,691.50 1312.64,688.42"/>
    </edge>
    <edge id=":A_3" function="internal">
        <lane id=":A_3_0" index="0" speed="5.46" length="9.91" shape="1310.27,686.27 1307.88,688.40 1306.17,688.76 1305.14,687.35 1304.80,684.16"/>
    </edge>
    <edge id=":A_4" function="internal">
        <lane id=":A_4_0" index="0" speed="7.76" length="20.73" shape="1310.27,686.27 1307.15,691.41 1306.69,696.38 1308.98,700.12 1314.11,701.60"/>
    </edge>
    <edge id=":A_5" function="internal">
        <lane id=":A_5_0" index="0" speed="5.74" length="10.62" shape="1314.11,695.20 1311.17,694.78 1309.94,693.50 1310.43,691.39 1312.64,688.42"/>
    </edge>
    <edge id=":A_6" function="internal">
        <lane id=":A_6_0" index="0" speed="8.57" length="16.43" shape="1314.11,695.20 1310.04,694.51 1307.13,692.44 1305.38,688.99 1304.80,684.16"/>
    </edge>
    <edge id=":A_7" function="internal">
        <lane id=":A_7_0" index="0" speed="9.75" length="21.59" shape="1314.11,698.40 1308.64,697.51 1304.73,694.84 1302.38,690.39 1301.60,684.16"/>
    </edge>
    <edge id=":B_0" function="internal">
        <lane id=":B_0_0" index="0" speed="6.51" length="9.03" shape="1395.20,689.60 1394.85,692.05 1393.80,693.80 1392.05,694.85 1389.60,695.20"/>
    </edge>
    <edge id=":B_1" function="internal">
        <lane id=":B_1_0" index="0" speed="9.26" length="19.35" shape="1398.40,689.60 1399.15,694.85 1401.40,698.60 1405.15,700.85 1410.40,701.60"/>
    </edge>
    <edge id=":B_2" function="internal">
        <lane id=":B_2_0" index="0" speed="6.51" length="9.03" shape="1410.40,695.20 1407.95,694.85 1406.20,693.80 1405.15,692.05 1404.80,689.60"/>
    </edge>
    <edge id=":B_3" function="internal">
        <lane id=":B_3_0" index="0" speed="13.89" length="20.80" shape="1410.40,695.20 1389.60,695.20"/>
        <lane id=":B_3_1" index="1" speed="13.89" length="20.80" shape="1410.40,698.40 1389.60,698.40"/>
    </edge>
    <edge id=":B_5" function="internal">
        <lane id=":B_5_0" index="0" speed="13.89" length="20.80" shape="1389.60,704.80 1410.40,704.80"/>
        <lane id=":B_5_1" index="1" speed="13.89" length="20.80" shape="1389.60,701.60 1410.40,701.60"/>
    </edge>
    <edge id=":B_7" function="internal">
        <lane id=":B_7_0" index="0" speed="9.26" length="6.96" shape="1389.60,701.60 1394.85,700.85 1396.27,700.00"/>
    </edge>
    <edge id=":B_8" function="internal">
        <lane id=":B_8_0" index="0" speed="9.26" length="12.40" shape="1396.27,700.00 1398.60,698.60 1400.85,694.85 1401.60,689.60"/>
    </edge>
    <edge id=":C_0" function="internal">
        <lane id=":C_0_0" index="0" speed="7.20" length="11.30" shape="1495.20,686.89 1494.85,690.53 1493.80,693.12 1492.05,694.68 1489.60,695.20"/>
    </edge>
    <edge id=":C_1" function="internal">
        <lane id=":C_1_0" index="0" speed="8.57" length="16.43" shape="1498.40,686.89 1497.85,691.93 1496.20,695.52 1493.45,697.68 1489.60,698.40"/>
    </edge>
    <edge id=":C_2" function="internal">
        <lane id=":C_2_0" index="0" speed="8.15" length="22.27" shape="1498.40,686.89 1499.28,693.38 1501.93,696.42 1506.34,696.02 1512.51,692.19"/>
    </edge>
    <edge id=":C_3" function="internal">
        <lane id=":C_3_0" index="0" speed="5.54" length="9.45" shape="1510.53,689.68 1508.02,691.20 1506.23,691.24 1505.16,689.80 1504.80,686.89"/>
    </edge>
    <edge id=":C_4" function="internal">
        <lane id=":C_4_0" index="0" speed="13.89" length="23.12" shape="1510.53,689.68 1507.01,692.35 1502.34,695.20 1496.54,697.47 1489.60,698.40"/>
    </edge>
    <edge id=":C_5" function="internal">
        <lane id=":C_5_0" index="0" speed="13.89" length="26.66" shape="1489.60,704.80 1496.85,703.26 1503.33,699.66 1508.68,695.47 1512.51,692.19"/>
    </edge>
    <edge id=":C_6" function="internal">
        <lane id=":C_6_0" index="0" speed="9.75" length="8.33" shape="1489.60,701.60 1494.85,700.68 1497.26,698.91"/>
    </edge>
    <edge id=":C_7" function="internal">
        <lane id=":C_7_0" index="0" speed="9.75" length="13.25" shape="1497.26,698.91 1498.60,697.92 1500.85,693.33 1501.60,686.89"/>
    </edge>
    <edge id=":D_0" function="internal">
        <lane id=":D_0_0" index="0" speed="6.51" length="9.03" shape="1495.20,589.60 1494.85,592.05 1493.80,593.80 1492.05,594.85 1489.60,595.20"/>
    </edge>
    <edge id=":D_1" function="internal">
        <lane id=":D_1_0" index="0" speed="13.89" length="20.80" shape="1495.20,589.60 1495.20,610.40"/>
        <lane id=":D_1_1" index="1" speed="13.89" length="20.80" shape="1498.40,589.60 1498.40,610.40"/>
    </edge>
    <edge id=":D_3" function="internal">
        <lane id=":D_3_0" index="0" speed="9.81" length="7.00" shape="1498.40,589.60 1499.16,594.86 1500.00,596.32"/>
    </edge>
    <edge id=":D_14" function="internal">
        <lane id=":D_14_0" index="0" speed="9.81" length="12.99" shape="1500.00,596.32 1501.44,598.82 1505.24,601.46 1510.55,602.80"/>
    </edge>
    <edge id=":D_4" function="internal">
        <lane id=":D_4_0" index="0" speed="8.00" length="12.96" shape="1510.91,599.62 1508.24,598.74 1506.33,596.77 1505.18,593.73 1504.80,589.60"/>
    </edge>
    <edge id=":D_5" function="internal">
        <lane id=":D_5_0" index="0" speed="13.89" length="21.36" shape="1510.91,599.62 1506.89,599.19 1502.14,598.80 1496.45,598.51 1489.60,598.40"/>
    </edge>
    <edge id=":D_6" function="internal">
        <lane id=":D_6_0" index="0" speed="8.90" length="10.37" shape="1510.91,599.62 1505.44,599.77 1501.53,601.61 1501.22,602.08"/>
    </edge>
    <edge id=":D_15" function="internal">
        <lane id=":D_15_0" index="0" speed="8.90" length="8.99" shape="1501.22,602.08 1499.18,605.15 1498.40,610.40"/>
    </edge>
    <edge id=":D_7" function="internal">
        <lane id=":D_7_0" index="0" speed="6.86" length="11.04" shape="1504.80,610.40 1505.16,606.83 1506.24,604.38 1508.04,603.03 1510.55,602.80"/>
    </edge>
    <edge id=":D_8" function="internal">
        <lane id=":D_8_0" index="0" speed="13.89" length="20.80" shape="1504.80,610.40 1504.80,589.60"/>
        <lane id=":D_8_1" index="1" speed="13.89" length="20.80" shape="1501.60,610.40 1501.60,589.60"/>
    </edge>
    <edge id=":D_10" function="internal">
        <lane id=":D_10_0" index="0" speed="9.26" length="6.96" shape="1501.60,610.40 1500.85,605.15 1500.00,603.73"/>
    </edge>
    <edge id=":D_16" function="internal">
        <lane id=":D_16_0" index="0" speed="9.26" length="12.40" shape="1500.00,603.73 1498.60,601.40 1494.85,599.15 1489.60,598.40"/>
    </edge>
    <edge id=":D_11" function="internal">
        <lane id=":D_11_0" index="0" speed="6.51" length="9.03" shape="1489.60,604.80 1492.05,605.15 1493.80,606.20 1494.85,607.95 1495.20,610.40"/>
    </edge>
    <edge id=":D_12" function="internal">
        <lane id=":D_12_0" index="0" speed="13.89" length="21.08" shape="1489.60,604.80 1496.39,604.41 1501.96,603.59 1506.59,602.88 1510.55,602.80"/>
    </edge>
    <edge id=":D_13" function="internal">
        <lane id=":D_13_0" index="0" speed="9.26" length="6.75" shape="1489.60,601.60 1494.85,600.85 1496.09,600.11"/>
    </edge>
    <edge id=":D_17" function="internal">
        <lane id=":D_17_0" index="0" speed="9.26" length="12.60" shape="1496.09,600.11 1498.60,598.60 1500.85,594.85 1501.60,589.60"/>
    </edge>
    <edge id=":E_0" function="internal">
        <lane id=":E_0_0" index="0" speed="13.89" length="28.14" shape="1512.63,510.51 1505.52,503.81 1499.31,499.03 1494.00,496.16 1489.60,495.20"/>
    </edge>
    <edge id=":E_1" function="internal">
        <lane id=":E_1_0" index="0" speed="7.49" length="6.54" shape="1512.63,510.51 1507.94,507.56 1506.93,507.53"/>
    </edge>
    <edge id=":E_8" function="internal">
        <lane id=":E_8_0" index="0" speed="7.49" length="13.19" shape="1506.93,507.53 1503.33,507.45 1499.80,510.00 1498.40,515.03"/>
    </edge>
    <edge id=":E_2" function="internal">
        <lane id=":E_2_0" index="0" speed="5.47" length="9.76" shape="1504.80,515.03 1505.15,511.93 1506.19,510.51 1507.92,510.79 1510.35,512.75"/>
    </edge>
    <edge id=":E_3" function="internal">
        <lane id=":E_3_0" index="0" speed="11.11" length="28.35" shape="1504.80,515.03 1503.85,506.36 1501.00,500.16 1496.25,496.44 1489.60,495.20"/>
    </edge>
    <edge id=":E_4" function="internal">
        <lane id=":E_4_0" index="0" speed="10.10" length="23.21" shape="1501.60,515.03 1500.85,507.76 1498.60,502.56 1494.85,499.44 1489.60,498.40"/>
    </edge>
    <edge id=":E_5" function="internal">
        <lane id=":E_5_0" index="0" speed="7.68" length="12.99" shape="1489.60,504.80 1492.05,505.44 1493.80,507.36 1494.85,510.56 1495.20,515.03"/>
    </edge>
    <edge id=":E_6" function="internal">
        <lane id=":E_6_0" index="0" speed="8.97" length="18.08" shape="1489.60,501.60 1493.45,502.44 1496.20,504.96 1497.85,509.16 1498.40,515.03"/>
    </edge>
    <edge id=":E_7" function="internal">
        <lane id=":E_7_0" index="0" speed="13.89" length="24.13" shape="1489.60,501.60 1494.55,502.30 1499.65,504.39 1504.92,507.87 1510.35,512.75"/>
    </edge>
    <edge id=":F_0" function="internal">
        <lane id=":F_0_0" index="0" speed="13.89" length="20.80" shape="1410.40,495.20 1389.60,495.20"/>
        <lane id=":F_0_1" index="1" speed="13.89" length="20.80" shape="1410.40,498.40 1389.60,498.40"/>
    </edge>
    <edge id=":F_2" function="internal">
        <lane id=":F_2_0" index="0" speed="9.26" length="6.96" shape="1410.40,498.40 1405.15,499.15 1403.73,500.00"/>
    </edge>
    <edge id=":F_8" function="internal">
        <lane id=":F_8_0" index="0" speed="9.26" length="12.40" shape="1403.73,500.00 1401.40,501.40 1399.15,505.15 1398.40,510.40"/>
    </edge>
    <edge id=":F_3" function="internal">
        <lane id=":F_3_0" index="0" speed="6.51" length="9.03" shape="1404.80,510.40 1405.15,507.95 1406.20,506.20 1407.95,505.15 1410.40,504.80"/>
    </edge>
    <edge id=":F_4" function="internal">
        <lane id=":F_4_0" index="0" speed="9.26" length="19.35" shape="1401.60,510.40 1400.85,505.15 1398.60,501.40 1394.85,499.15 1389.60,498.40"/>
    </edge>
    <edge id=":F_5" function="internal">
        <lane id=":F_5_0" index="0" speed="6.51" length="9.03" shape="1389.60,504.80 1392.05,505.15 1393.80,506.20 1394.85,507.95 1395.20,510.40"/>
    </edge>
    <edge id=":F_6" function="internal">
        <lane id=":F_6_0" index="0" speed="13.89" length="20.80" shape="1389.60,504.80 1410.40,504.80"/>
        <lane id=":F_6_1" index="1" speed="13.89" length="20.80" shape="1389.60,501.60 1410.40,501.60"/>
    </edge>
    <edge id=":G_0" function="internal">
        <lane id=":G_0_0" index="0" speed="8.96" length="18.06" shape="1306.40,495.20 1301.50,495.90 1298.00,498.00 1295.90,501.50 1295.20,506.40"/>
    </edge>
    <edge id=":G_1" function="internal">
        <lane id=":G_1_0" index="0" speed="7.66" length="12.90" shape="1306.40,498.40 1302.90,498.90 1300.40,500.40 1298.90,502.90 1298.40,506.40"/>
    </edge>
    <edge id=":G_2" function="internal">
        <lane id=":G_2_0" index="0" speed="3.90" length="2.58" shape="1304.80,506.40 1304.90,505.70 1305.20,505.20 1305.70,504.90 1306.40,504.80"/>
    </edge>
    <edge id=":G_3" function="internal">
        <lane id=":G_3_0" index="0" speed="6.08" length="7.74" shape="1301.60,506.40 1301.90,504.30 1302.80,502.80 1304.30,501.90 1306.40,501.60"/>
    </edge>
    <edge id=":H_0" function="internal">
        <lane id=":H_0_0" index="0" speed="13.89" length="20.80" shape="1295.20,589.60 1295.20,610.40"/>
        <lane id=":H_0_1" index="1" speed="13.89" length="20.80" shape="1298.40,589.60 1298.40,610.40"/>
    </edge>
    <edge id=":H_2" function="internal">
        <lane id=":H_2_0" index="0" speed="9.26" length="6.96" shape="1298.40,589.60 1299.15,594.85 1300.00,596.27"/>
    </edge>
    <edge id=":H_8" function="internal">
        <lane id=":H_8_0" index="0" speed="9.26" length="12.40" shape="1300.00,596.27 1301.40,598.60 1305.15,600.85 1310.40,601.60"/>
    </edge>
    <edge id=":H_3" function="internal">
        <lane id=":H_3_0" index="0" speed="6.51" length="9.03" shape="1310.40,595.20 1307.95,594.85 1306.20,593.80 1305.15,592.05 1304.80,589.60"/>
    </edge>
    <edge id=":H_4" function="internal">
        <lane id=":H_4_0" index="0" speed="9.26" length="19.35" shape="1310.40,598.40 1305.15,599.15 1301.40,601.40 1299.15,605.15 1298.40,610.40"/>
    </edge>
    <edge id=":H_5" function="internal">
        <lane id=":H_5_0" index="0" speed="6.51" length="9.03" shape="1304.80,610.40 1305.15,607.95 1306.20,606.20 1307.95,605.15 1310.40,604.80"/>
    </edge>
    <edge id=":H_6" function="internal">
        <lane id=":H_6_0" index="0" speed="13.89" length="20.80" shape="1304.80,610.40 1304.80,589.60"/>
        <lane id=":H_6_1" index="1" speed="13.89" length="20.80" shape="1301.60,610.40 1301.60,589.60"/>
    </edge>
    <edge id=":I_0" function="internal">
        <lane id=":I_0_0" index="0" speed="7.94" length="13.96" shape="1395.20,589.60 1394.49,592.05 1392.37,593.80 1388.83,594.85 1383.87,595.20"/>
    </edge>
    <edge id=":I_1" function="internal">
        <lane id=":I_1_0" index="0" speed="13.89" length="23.34" shape="1395.20,589.60 1394.62,595.57 1392.88,601.00 1389.98,605.89 1385.92,610.24"/>
    </edge>
    <edge id=":I_2" function="internal">
        <lane id=":I_2_0" index="0" speed="13.89" length="24.29" shape="1395.20,589.60 1395.20,613.89"/>
        <lane id=":I_2_1" index="1" speed="13.89" length="24.29" shape="1398.40,589.60 1398.40,613.89"/>
    </edge>
    <edge id=":I_4" function="internal">
        <lane id=":I_4_0" index="0" speed="9.26" length="6.96" shape="1398.40,589.60 1399.15,594.85 1400.00,596.27"/>
    </edge>
    <edge id=":I_24" function="internal">
        <lane id=":I_24_0" index="0" speed="9.26" length="12.40" shape="1400.00,596.27 1401.40,598.60 1405.15,600.85 1410.40,601.60"/>
    </edge>
    <edge id=":I_5" function="internal">
        <lane id=":I_5_0" index="0" speed="6.51" length="9.03" shape="1410.40,595.20 1407.95,594.85 1406.20,593.80 1405.15,592.05 1404.80,589.60"/>
    </edge>
    <edge id=":I_6" function="internal">
        <lane id=":I_6_0" index="0" speed="13.89" length="26.53" shape="1410.40,595.20 1383.87,595.20"/>
        <lane id=":I_6_1" index="1" speed="13.89" length="26.53" shape="1410.40,598.40 1383.87,598.40"/>
    </edge>
    <edge id=":I_8" function="internal">
        <lane id=":I_8_0" index="0" speed="13.89" length="8.15" shape="1410.40,598.40 1402.88,599.79 1402.43,600.00"/>
    </edge>
    <edge id=":I_9" function="internal">
        <lane id=":I_9_0" index="0" speed="9.89" length="6.37" shape="1410.40,598.40 1405.15,599.37 1404.33,600.00"/>
    </edge>
    <edge id=":I_25" function="internal">
        <lane id=":I_25_0" index="0" speed="13.89" length="19.52" shape="1402.43,600.00 1395.82,603.08 1389.93,607.00 1385.92,610.24"/>
    </edge>
    <edge id=":I_26" function="internal">
        <lane id=":I_26_0" index="0" speed="9.89" length="15.86" shape="1404.33,600.00 1401.40,602.27 1399.15,607.11 1398.40,613.89"/>
    </edge>
    <edge id=":I_10" function="internal">
        <lane id=":I_10_0" index="0" speed="7.40" length="11.97" shape="1404.80,613.89 1405.15,609.91 1406.20,607.07 1407.95,605.37 1410.40,604.80"/>
    </edge>
    <edge id=":I_11" function="internal">
        <lane id=":I_11_0" index="0" speed="13.89" length="24.29" shape="1404.80,613.89 1404.80,589.60"/>
        <lane id=":I_11_1" index="1" speed="13.89" length="24.29" shape="1401.60,613.89 1401.60,589.60"/>
    </edge>
    <edge id=":I_13" function="internal">
        <lane id=":I_13_0" index="0" speed="10.82" length="7.73" shape="1401.60,613.89 1400.49,607.11 1400.00,606.39"/>
    </edge>
    <edge id=":I_14" function="internal">
        <lane id=":I_14_0" index="0" speed="7.84" length="5.50" shape="1401.60,613.89 1400.09,608.71 1400.00,608.66"/>
    </edge>
    <edge id=":I_27" function="internal">
        <lane id=":I_27_0" index="0" speed="10.82" length="19.07" shape="1400.00,606.39 1397.17,602.27 1391.63,599.37 1383.87,598.40"/>
    </edge>
    <edge id=":I_28" function="internal">
        <lane id=":I_28_0" index="0" speed="7.84" length="15.57" shape="1400.00,608.66 1396.28,606.50 1391.21,607.06 1385.92,610.24"/>
    </edge>
    <edge id=":I_15" function="internal">
        <lane id=":I_15_0" index="0" speed="5.83" length="10.91" shape="1388.03,612.65 1391.17,610.36 1393.41,609.81 1394.75,610.98 1395.20,613.89"/>
    </edge>
    <edge id=":I_16" function="internal">
        <lane id=":I_16_0" index="0" speed="13.89" length="24.12" shape="1388.03,612.65 1391.71,610.03 1396.88,607.49 1403.21,605.56 1410.40,604.80"/>
    </edge>
    <edge id=":I_17" function="internal">
        <lane id=":I_17_0" index="0" speed="13.89" length="27.50" shape="1388.03,612.65 1393.97,606.73 1398.21,600.92 1400.75,595.21 1401.60,589.60"/>
    </edge>
    <edge id=":I_18" function="internal">
        <lane id=":I_18_0" index="0" speed="7.40" length="19.75" shape="1388.03,612.65 1391.16,608.12 1391.37,603.48 1388.87,599.86 1383.87,598.40"/>
    </edge>
    <edge id=":I_19" function="internal">
        <lane id=":I_19_0" index="0" speed="5.46" length="9.96" shape="1383.87,604.80 1387.09,605.14 1388.51,606.16 1388.12,607.86 1385.92,610.24"/>
    </edge>
    <edge id=":I_20" function="internal">
        <lane id=":I_20_0" index="0" speed="8.59" length="16.50" shape="1383.87,604.80 1388.83,605.37 1392.37,607.07 1394.49,609.91 1395.20,613.89"/>
    </edge>
    <edge id=":I_21" function="internal">
        <lane id=":I_21_0" index="0" speed="13.89" length="26.53" shape="1383.87,604.80 1410.40,604.80"/>
        <lane id=":I_21_1" index="1" speed="13.89" length="26.53" shape="1383.87,601.60 1410.40,601.60"/>
    </edge>
    <edge id=":I_23" function="internal">
        <lane id=":I_23_0" index="0" speed="10.29" length="10.05" shape="1383.87,601.60 1391.63,600.85 1393.72,600.00"/>
    </edge>
    <edge id=":I_29" function="internal">
        <lane id=":I_29_0" index="0" speed="10.29" length="14.10" shape="1393.72,600.00 1397.17,598.60 1400.49,594.85 1401.60,589.60"/>
    </edge>
    <edge id=":gneJ1_0" function="internal">
        <lane id=":gneJ1_0_0" index="0" speed="9.50" length="22.21" shape="1602.89,621.10 1606.91,616.76 1608.29,612.15 1607.03,607.28 1603.13,602.13"/>
    </edge>
    <edge id=":gneJ1_1" function="internal">
        <lane id=":gneJ1_1_0" index="0" speed="7.57" length="20.19" shape="1602.89,621.10 1607.23,616.73 1607.93,613.34 1604.97,610.93 1598.37,609.49"/>
    </edge>
    <edge id=":gneJ1_2" function="internal">
        <lane id=":gneJ1_2_0" index="0" speed="5.66" length="10.57" shape="1598.01,612.67 1601.61,613.43 1603.29,614.66 1603.05,616.38 1600.91,618.58"/>
    </edge>
    <edge id=":gneJ1_3" function="internal">
        <lane id=":gneJ1_3_0" index="0" speed="7.53" length="20.92" shape="1598.01,612.67 1604.89,612.75 1608.03,611.02 1607.45,607.48 1603.13,602.13"/>
    </edge>
    <edge id=":gneJ1_4" function="internal">
        <lane id=":gneJ1_4_0" index="0" speed="5.46" length="10.15" shape="1600.85,604.38 1602.95,606.97 1603.23,608.69 1601.71,609.53 1598.37,609.49"/>
    </edge>
    <edge id=":gneJ1_5" function="internal">
        <lane id=":gneJ1_5_0" index="0" speed="8.29" length="16.62" shape="1600.85,604.38 1603.83,608.27 1604.83,611.94 1603.85,615.37 1600.91,618.58"/>
    </edge>
    <edge id=":gneJ3_0" function="internal">
        <lane id=":gneJ3_0_0" index="0" speed="13.89" length="0.55" shape="1352.72,639.42 1352.60,639.53 1352.52,639.60 1352.44,639.68 1352.33,639.80"/>
    </edge>
    <edge id=":gneJ3_1" function="internal">
        <lane id=":gneJ3_1_0" index="0" speed="13.89" length="0.18" shape="1354.71,641.95 1354.74,641.91 1354.77,641.89 1354.80,641.86 1354.84,641.82"/>
    </edge>

    <edge id="eA_B" from="A" to="B" priority="-1">
        <lane id="eA_B_0" index="0" speed="13.89" length="75.49" shape="1314.11,704.80 1389.60,704.80"/>
        <lane id="eA_B_1" index="1" speed="13.89" length="75.49" shape="1314.11,701.60 1389.60,701.60"/>
    </edge>
    <edge id="eA_H" from="A" to="H" priority="-1">
        <lane id="eA_H_0" index="0" speed="13.89" length="73.76" shape="1304.80,684.16 1304.80,610.40"/>
        <lane id="eA_H_1" index="1" speed="13.89" length="73.76" shape="1301.60,684.16 1301.60,610.40"/>
    </edge>
    <edge id="eB_A" from="B" to="A" priority="-1">
        <lane id="eB_A_0" index="0" speed="13.89" length="75.49" shape="1389.60,695.20 1314.11,695.20"/>
        <lane id="eB_A_1" index="1" speed="13.89" length="75.49" shape="1389.60,698.40 1314.11,698.40"/>
    </edge>
    <edge id="eB_C" from="B" to="C" priority="-1">
        <lane id="eB_C_0" index="0" speed="13.89" length="79.20" shape="1410.40,704.80 1489.60,704.80"/>
        <lane id="eB_C_1" index="1" speed="13.89" length="79.20" shape="1410.40,701.60 1489.60,701.60"/>
    </edge>
    <edge id="eB_I" from="B" to="I" priority="-1">
        <lane id="eB_I_0" index="0" speed="13.89" length="75.71" shape="1404.80,689.60 1404.80,613.89"/>
        <lane id="eB_I_1" index="1" speed="13.89" length="75.71" shape="1401.60,689.60 1401.60,613.89"/>
    </edge>
    <edge id="eC_B" from="C" to="B" priority="-1">
        <lane id="eC_B_0" index="0" speed="13.89" length="79.20" shape="1489.60,695.20 1410.40,695.20"/>
        <lane id="eC_B_1" index="1" speed="13.89" length="79.20" shape="1489.60,698.40 1410.40,698.40"/>
    </edge>
    <edge id="eC_D" from="C" to="D" priority="-1">
        <lane id="eC_D_0" index="0" speed="13.89" length="76.49" shape="1504.80,686.89 1504.80,610.40"/>
        <lane id="eC_D_1" index="1" speed="13.89" length="76.49" shape="1501.60,686.89 1501.60,610.40"/>
    </edge>
    <edge id="eD_C" from="D" to="C" priority="-1">
        <lane id="eD_C_0" index="0" speed="13.89" length="76.49" shape="1495.20,610.40 1495.20,686.89"/>
        <lane id="eD_C_1" index="1" speed="13.89" length="76.49" shape="1498.40,610.40 1498.40,686.89"/>
    </edge>
    <edge id="eD_E" from="D" to="E" priority="-1">
        <lane id="eD_E_0" index="0" speed="13.89" length="74.57" shape="1504.80,589.60 1504.80,515.03"/>
        <lane id="eD_E_1" index="1" speed="13.89" length="74.57" shape="1501.60,589.60 1501.60,515.03"/>
    </edge>
    <edge id="eD_I" from="D" to="I" priority="-1">
        <lane id="eD_I_0" index="0" speed="13.89" length="79.20" shape="1489.60,595.20 1410.40,595.20"/>
        <lane id="eD_I_1" index="1" speed="13.89" length="79.20" shape="1489.60,598.40 1410.40,598.40"/>
    </edge>
    <edge id="eE_D" from="E" to="D" priority="-1">
        <lane id="eE_D_0" index="0" speed="13.89" length="74.57" shape="1495.20,515.03 1495.20,589.60"/>
        <lane id="eE_D_1" index="1" speed="13.89" length="74.57" shape="1498.40,515.03 1498.40,589.60"/>
    </edge>
    <edge id="eE_F" from="E" to="F" priority="-1">
        <lane id="eE_F_0" index="0" speed="13.89" length="79.20" shape="1489.60,495.20 1410.40,495.20"/>
        <lane id="eE_F_1" index="1" speed="13.89" length="79.20" shape="1489.60,498.40 1410.40,498.40"/>
    </edge>
    <edge id="eF_E" from="F" to="E" priority="-1">
        <lane id="eF_E_0" index="0" speed="13.89" length="79.20" shape="1410.40,504.80 1489.60,504.80"/>
        <lane id="eF_E_1" index="1" speed="13.89" length="79.20" shape="1410.40,501.60 1489.60,501.60"/>
    </edge>
    <edge id="eF_G" from="F" to="G" priority="-1">
        <lane id="eF_G_0" index="0" speed="13.89" length="83.20" shape="1389.60,495.20 1306.40,495.20"/>
        <lane id="eF_G_1" index="1" speed="13.89" length="83.20" shape="1389.60,498.40 1306.40,498.40"/>
    </edge>
    <edge id="eF_I" from="F" to="I" priority="-1">
        <lane id="eF_I_0" index="0" speed="13.89" length="79.20" shape="1395.20,510.40 1395.20,589.60"/>
        <lane id="eF_I_1" index="1" speed="13.89" length="79.20" shape="1398.40,510.40 1398.40,589.60"/>
    </edge>
    <edge id="eG_F" from="G" to="F" priority="-1">
        <lane id="eG_F_0" index="0" speed="13.89" length="83.20" shape="1306.40,504.80 1389.60,504.80"/>
        <lane id="eG_F_1" index="1" speed="13.89" length="83.20" shape="1306.40,501.60 1389.60,501.60"/>
    </edge>
    <edge id="eG_H" from="G" to="H" priority="-1">
        <lane id="eG_H_0" index="0" speed="13.89" length="83.20" shape="1295.20,506.40 1295.20,589.60"/>
        <lane id="eG_H_1" index="1" speed="13.89" length="83.20" shape="1298.40,506.40 1298.40,589.60"/>
    </edge>
    <edge id="eH_A" from="H" to="A" priority="-1">
        <lane id="eH_A_0" index="0" speed="13.89" length="73.76" shape="1295.20,610.40 1295.20,684.16"/>
        <lane id="eH_A_1" index="1" speed="13.89" length="73.76" shape="1298.40,610.40 1298.40,684.16"/>
    </edge>
    <edge id="eH_G" from="H" to="G" priority="-1">
        <lane id="eH_G_0" index="0" speed="13.89" length="83.20" shape="1304.80,589.60 1304.80,506.40"/>
        <lane id="eH_G_1" index="1" speed="13.89" length="83.20" shape="1301.60,589.60 1301.60,506.40"/>
    </edge>
    <edge id="eH_I" from="H" to="I" priority="-1">
        <lane id="eH_I_0" index="0" speed="13.89" length="73.47" shape="1310.40,604.80 1383.87,604.80"/>
        <lane id="eH_I_1" index="1" speed="13.89" length="73.47" shape="1310.40,601.60 1383.87,601.60"/>
    </edge>
    <edge id="eI_B" from="I" to="B" priority="-1">
        <lane id="eI_B_0" index="0" speed="13.89" length="75.71" shape="1395.20,613.89 1395.20,689.60"/>
        <lane id="eI_B_1" index="1" speed="13.89" length="75.71" shape="1398.40,613.89 1398.40,689.60"/>
    </edge>
    <edge id="eI_D" from="I" to="D" priority="-1">
        <lane id="eI_D_0" index="0" speed="13.89" length="79.20" shape="1410.40,604.80 1489.60,604.80"/>
        <lane id="eI_D_1" index="1" speed="13.89" length="79.20" shape="1410.40,601.60 1489.60,601.60"/>
    </edge>
    <edge id="eI_F" from="I" to="F" priority="-1">
        <lane id="eI_F_0" index="0" speed="13.89" length="79.20" shape="1404.80,589.60 1404.80,510.40"/>
        <lane id="eI_F_1" index="1" speed="13.89" length="79.20" shape="1401.60,589.60 1401.60,510.40"/>
    </edge>
    <edge id="eI_H" from="I" to="H" priority="-1">
        <lane id="eI_H_0" index="0" speed="13.89" length="73.47" shape="1383.87,595.20 1310.40,595.20"/>
        <lane id="eI_H_1" index="1" speed="13.89" length="73.47" shape="1383.87,598.40 1310.40,598.40"/>
    </edge>
    <edge id="gneE0" from="D" to="gneJ1" priority="-1">
        <lane id="gneE0_0" index="0" speed="13.89" length="88.01" shape="1510.55,602.80 1598.01,612.67"/>
    </edge>
    <edge id="gneE1" from="gneJ1" to="D" priority="-1">
        <lane id="gneE1_0" index="0" speed="13.89" length="88.01" shape="1598.37,609.49 1510.91,599.62"/>
    </edge>
    <edge id="gneE2" from="gneJ1" to="C" priority="-1">
        <lane id="gneE2_0" index="0" speed="13.89" length="114.99" shape="1600.91,618.58 1510.53,689.68"/>
    </edge>
    <edge id="gneE3" from="C" to="gneJ1" priority="-1">
        <lane id="gneE3_0" index="0" speed="13.89" length="114.99" shape="1512.51,692.19 1602.89,621.10"/>
    </edge>
    <edge id="gneE4" from="gneJ1" to="E" priority="-1">
        <lane id="gneE4_0" index="0" speed="13.89" length="128.79" shape="1603.13,602.13 1512.63,510.51"/>
    </edge>
    <edge id="gneE5" from="E" to="gneJ1" priority="-1">
        <lane id="gneE5_0" index="0" speed="13.89" length="128.79" shape="1510.35,512.75 1600.85,604.38"/>
    </edge>
    <edge id="gneE6" from="gneJ3" to="I" priority="-1">
        <lane id="gneE6_0" index="0" speed="13.89" length="44.20" shape="1354.84,641.82 1388.03,612.65"/>
    </edge>
    <edge id="gneE7" from="I" to="gneJ3" priority="-1">
        <lane id="gneE7_0" index="0" speed="13.89" length="44.20" shape="1385.92,610.24 1352.72,639.42"/>