<?xml version="1.0" encoding="UTF-8"?>

<!-- generated on Mon Mar  8 17:26:35 2021 by Eclipse SUMO netedit Version 1.8.0
<configuration xmlns:xsi="http://www.w3.org/2001/XMLSchema-instance" xsi:noNamespaceSchemaLocation="http://sumo.dlr.de/xsd/netconvertConfiguration.xsd">

    <input>
        <sumo-net-file value="/Users/umer/Documents/SUMO-Learning/Project5/network.net.xml"/>
    </input>

    <output>
        <output-file value="/Users/umer/Documents/SUMO-Learning/Project5/network.net.xml"/>
    </output>

    <processing>
        <geometry.min-radius.fix.railways value="false"/>
        <geometry.max-grade.fix value="false"/>
        <offset.disable-normalization value="true"/>
        <lefthand value="true"/>
    </processing>

    <junctions>
        <no-turnarounds value="true"/>
        <junctions.corner-detail value="5"/>
        <junctions.limit-turn-speed value="5.5"/>
        <rectangular-lane-cut value="false"/>
    </junctions>

    <pedestrian>
        <walkingareas value="false"/>
    </pedestrian>

    <report>
        <aggregate-warnings value="5"/>
    </report>

</configuration>
-->

<net version="1.6" junctionCornerDetail="5" lefthand="true" limitTurnSpeed="5.50" xmlns:xsi="http://www.w3.org/2001/XMLSchema-instance" xsi:noNamespaceSchemaLocation="http://sumo.dlr.de/xsd/net_file.xsd">

    <location netOffset="750.00,750.00" convBoundary="1300.00,500.00,1500.00,700.00" origBoundary="-750.00,-750.00,750.00,750.00" projParameter="!"/>

    <type id="4L13" priority="-1" numLanes="4" speed="13.89"/>

    <edge id=":A_0" function="internal">
        <lane id=":A_0_0" index="0" speed="8.96" length="18.06" shape="1295.20,693.60 1295.90,698.50 1298.00,702.00 1301.50,704.10 1306.40,704.80"/>
    </edge>
    <edge id=":A_1" function="internal">
        <lane id=":A_1_0" index="0" speed="7.66" length="12.90" shape="1298.40,693.60 1298.90,697.10 1300.40,699.60 1302.90,701.10 1306.40,701.60"/>
    </edge>
    <edge id=":A_2" function="internal">
        <lane id=":A_2_0" index="0" speed="3.90" length="2.58" shape="1306.40,695.20 1305.70,695.10 1305.20,694.80 1304.90,694.30 1304.80,693.60"/>
    </edge>
    <edge id=":A_3" function="internal">
        <lane id=":A_3_0" index="0" speed="6.08" length="7.74" shape="1306.40,698.40 1304.30,698.10 1302.80,697.20 1301.90,695.70 1301.60,693.60"/>
    </edge>
    <edge id=":B_0" function="internal">
        <lane id=":B_0_0" index="0" speed="6.51" length="9.03" shape="1395.20,689.60 1394.85,692.05 1393.80,693.80 1392.05,694.85 1389.60,695.20"/>
    </edge>
    <edge id=":B_1" function="internal">
        <lane id=":B_1_0" index="0" speed="9.26" length="19.35" shape="1398.40,689.60 1399.15,694.85 1401.40,698.60 1405.15,700.85 1410.40,701.60"/>
    </edge>
    <edge id=":B_2" function="internal">
        <lane id=":B_2_0" index="0" speed="6.51" length="9.03" shape="1410.40,695.20 1407.95,694.85 1406.20,693.80 1405.15,692.05 1404.80,689.60"/>
    </edge>
    <edge id=":B_3" function="internal">
        <lane id=":B_3_0" index="0" speed="13.89" length="20.80" shape="1410.40,695.20 1389.60,695.20"/>
        <lane id=":B_3_1" index="1" speed="13.89" length="20.80" shape="1410.40,698.40 1389.60,698.40"/>
    </edge>
    <edge id=":B_5" function="internal">
        <lane id=":B_5_0" index="0" speed="13.89" length="20.80" shape="1389.60,704.80 1410.40,704.80"/>
        <lane id=":B_5_1" index="1" speed="13.89" length="20.80" shape="1389.60,701.60 1410.40,701.60"/>
    </edge>
    <edge id=":B_7" function="internal">
        <lane id=":B_7_0" index="0" speed="9.26" length="6.96" shape="1389.60,701.60 1394.85,700.85 1396.27,700.00"/>
    </edge>
    <edge id=":B_8" function="internal">
        <lane id=":B_8_0" index="0" speed="9.26" length="12.40" shape="1396.27,700.00 1398.60,698.60 1400.85,694.85 1401.60,689.60"/>
    </edge>
    <edge id=":C_0" function="internal">
        <lane id=":C_0_0" index="0" speed="3.90" length="2.58" shape="1495.20,693.60 1495.10,694.30 1494.80,694.80 1494.30,695.10 1493.60,695.20"/>
    </edge>
    <edge id=":C_1" function="internal">
        <lane id=":C_1_0" index="0" speed="6.08" length="7.74" shape="1498.40,693.60 1498.10,695.70 1497.20,697.20 1495.70,698.10 1493.60,698.40"/>
    </edge>
    <edge id=":C_2" function="internal">
        <lane id=":C_2_0" index="0" speed="8.96" length="18.06" shape="1493.60,704.80 1498.50,704.10 1502.00,702.00 1504.10,698.50 1504.80,693.60"/>
    </edge>
    <edge id=":C_3" function="internal">
        <lane id=":C_3_0" index="0" speed="7.66" length="12.90" shape="1493.60,701.60 1497.10,701.10 1499.60,699.60 1501.10,697.10 1501.60,693.60"/>
    </edge>
    <edge id=":D_0" function="internal">
        <lane id=":D_0_0" index="0" speed="6.51" length="9.03" shape="1495.20,589.60 1494.85,592.05 1493.80,593.80 1492.05,594.85 1489.60,595.20"/>
    </edge>
    <edge id=":D_1" function="internal">
        <lane id=":D_1_0" index="0" speed="13.89" length="20.80" shape="1495.20,589.60 1495.20,610.40"/>
        <lane id=":D_1_1" index="1" speed="13.89" length="20.80" shape="1498.40,589.60 1498.40,610.40"/>
    </edge>
    <edge id=":D_3" function="internal">
        <lane id=":D_3_0" index="0" speed="13.89" length="20.80" shape="1504.80,610.40 1504.80,589.60"/>
        <lane id=":D_3_1" index="1" speed="13.89" length="20.80" shape="1501.60,610.40 1501.60,589.60"/>
    </edge>
    <edge id=":D_5" function="internal">
        <lane id=":D_5_0" index="0" speed="9.26" length="6.96" shape="1501.60,610.40 1500.85,605.15 1500.00,603.73"/>
    </edge>
    <edge id=":D_8" function="internal">
        <lane id=":D_8_0" index="0" speed="9.26" length="12.40" shape="1500.00,603.73 1498.60,601.40 1494.85,599.15 1489.60,598.40"/>
    </edge>
    <edge id=":D_6" function="internal">
        <lane id=":D_6_0" index="0" speed="6.51" length="9.03" shape="1489.60,604.80 1492.05,605.15 1493.80,606.20 1494.85,607.95 1495.20,610.40"/>
    </edge>
    <edge id=":D_7" function="internal">
        <lane id=":D_7_0" index="0" speed="9.26" length="19.35" shape="1489.60,601.60 1494.85,600.85 1498.60,598.60 1500.85,594.85 1501.60,589.60"/>
    </edge>
    <edge id=":E_0" function="internal">
        <lane id=":E_0_0" index="0" speed="8.96" length="18.06" shape="1504.80,506.40 1504.10,501.50 1502.00,498.00 1498.50,495.90 1493.60,495.20"/>
    </edge>
    <edge id=":E_1" function="internal">
        <lane id=":E_1_0" index="0" speed="7.66" length="12.90" shape="1501.60,506.40 1501.10,502.90 1499.60,500.40 1497.10,498.90 1493.60,498.40"/>
    </edge>
    <edge id=":E_2" function="internal">
        <lane id=":E_2_0" index="0" speed="3.90" length="2.58" shape="1493.60,504.80 1494.30,504.90 1494.80,505.20 1495.10,505.70 1495.20,506.40"/>
    </edge>
    <edge id=":E_3" function="internal">
        <lane id=":E_3_0" index="0" speed="6.08" length="7.74" shape="1493.60,501.60 1495.70,501.90 1497.20,502.80 1498.10,504.30 1498.40,506.40"/>
    </edge>
    <edge id=":F_0" function="internal">
        <lane id=":F_0_0" index="0" speed="13.89" length="20.80" shape="1410.40,495.20 1389.60,495.20"/>
        <lane id=":F_0_1" index="1" speed="13.89" length="20.80" shape="1410.40,498.40 1389.60,498.40"/>
    </edge>
    <edge id=":F_2" function="internal">
        <lane id=":F_2_0" index="0" speed="9.26" length="6.96" shape="1410.40,498.40 1405.15,499.15 1403.73,500.00"/>
    </edge>
    <edge id=":F_8" function="internal">
        <lane id=":F_8_0" index="0" speed="9.26" length="12.40" shape="1403.73,500.00 1401.40,501.40 1399.15,505.15 1398.40,510.40"/>
    </edge>
    <edge id=":F_3" function="internal">
        <lane id=":F_3_0" index="0" speed="6.51" length="9.03" shape="1404.80,510.40 1405.15,507.95 1406.20,506.20 1407.95,505.15 1410.40,504.80"/>
    </edge>
    <edge id=":F_4" function="internal">
        <lane id=":F_4_0" index="0" speed="9.26" length="19.35" shape="1401.60,510.40 1400.85,505.15 1398.60,501.40 1394.85,499.15 1389.60,498.40"/>
    </edge>
    <edge id=":F_5" function="internal">
        <lane id=":F_5_0" index="0" speed="6.51" length="9.03" shape="1389.60,504.80 1392.05,505.15 1393.80,506.20 1394.85,507.95 1395.20,510.40"/>
    </edge>
    <edge id=":F_6" function="internal">
        <lane id=":F_6_0" index="0" speed="13.89" length="20.80" shape="1389.60,504.80 1410.40,504.80"/>
        <lane id=":F_6_1" index="1" speed="13.89" length="20.80" shape="1389.60,501.60 1410.40,501.60"/>
    </edge>
    <edge id=":G_0" function="internal">
        <lane id=":G_0_0" index="0" speed="8.96" length="18.06" shape="1306.40,495.20 1301.50,495.90 1298.00,498.00 1295.90,501.50 1295.20,506.40"/>
    </edge>
    <edge id=":G_1" function="internal">
        <lane id=":G_1_0" index="0" speed="7.66" length="12.90" shape="1306.40,498.40 1302.90,498.90 1300.40,500.40 1298.90,502.90 1298.40,506.40"/>
    </edge>
    <edge id=":G_2" function="internal">
        <lane id=":G_2_0" index="0" speed="3.90" length="2.58" shape="1304.80,506.40 1304.90,505.70 1305.20,505.20 1305.70,504.90 1306.40,504.80"/>
    </edge>
    <edge id=":G_3" function="internal">
        <lane id=":G_3_0" index="0" speed="6.08" length="7.74" shape="1301.60,506.40 1301.90,504.30 1302.80,502.80 1304.30,501.90 1306.40,501.60"/>
    </edge>
    <edge id=":H_0" function="internal">
        <lane id=":H_0_0" index="0" speed="13.89" length="20.80" shape="1295.20,589.60 1295.20,610.40"/>
        <lane id=":H_0_1" index="1" speed="13.89" length="20.80" shape="1298.40,589.60 1298.40,610.40"/>
    </edge>
    <edge id=":H_2" function="internal">
        <lane id=":H_2_0" index="0" speed="9.26" length="6.96" shape="1298.40,589.60 1299.15,594.85 1300.00,596.27"/>
    </edge>
    <edge id=":H_8" function="internal">
        <lane id=":H_8_0" index="0" speed="9.26" length="12.40" shape="1300.00,596.27 1301.40,598.60 1305.15,600.85 1310.40,601.60"/>
    </edge>
    <edge id=":H_3" function="internal">
        <lane id=":H_3_0" index="0" speed="6.51" length="9.03" shape="1310.40,595.20 1307.95,594.85 1306.20,593.80 1305.15,592.05 1304.80,589.60"/>
    </edge>
    <edge id=":H_4" function="internal">
        <lane id=":H_4_0" index="0" speed="9.26" length="19.35" shape="1310.40,598.40 1305.15,599.15 1301.40,601.40 1299.15,605.15 1298.40,610.40"/>
    </edge>
    <edge id=":H_5" function="internal">
        <lane id=":H_5_0" index="0" speed="6.51" length="9.03" shape="1304.80,610.40 1305.15,607.95 1306.20,606.20 1307.95,605.15 1310.40,604.80"/>
    </edge>
    <edge id=":H_6" function="internal">
        <lane id=":H_6_0" index="0" speed="13.89" length="20.80" shape="1304.80,610.40 1304.80,589.60"/>
        <lane id=":H_6_1" index="1" speed="13.89" length="20.80" shape="1301.60,610.40 1301.60,589.60"/>
    </edge>
    <edge id=":I_0" function="internal">
        <lane id=":I_0_0" index="0" speed="6.51" length="9.03" shape="1395.20,589.60 1394.85,592.05 1393.80,593.80 1392.05,594.85 1389.60,595.20"/>
    </edge>
    <edge id=":I_1" function="internal">
        <lane id=":I_1_0" index="0" speed="13.89" length="20.80" shape="1395.20,589.60 1395.20,610.40"/>
        <lane id=":I_1_1" index="1" speed="13.89" length="20.80" shape="1398.40,589.60 1398.40,610.40"/>
    </edge>
    <edge id=":I_3" function="internal">
        <lane id=":I_3_0" index="0" speed="9.26" length="6.96" shape="1398.40,589.60 1399.15,594.85 1400.00,596.27"/>
    </edge>
    <edge id=":I_16" function="internal">
        <lane id=":I_16_0" index="0" speed="9.26" length="12.40" shape="1400.00,596.27 1401.40,598.60 1405.15,600.85 1410.40,601.60"/>
    </edge>
    <edge id=":I_4" function="internal">
        <lane id=":I_4_0" index="0" speed="6.51" length="9.03" shape="1410.40,595.20 1407.95,594.85 1406.20,593.80 1405.15,592.05 1404.80,589.60"/>
    </edge>
    <edge id=":I_5" function="internal">
        <lane id=":I_5_0" index="0" speed="13.89" length="20.80" shape="1410.40,595.20 1389.60,595.20"/>
        <lane id=":I_5_1" index="1" speed="13.89" length="20.80" shape="1410.40,598.40 1389.60,598.40"/>
    </edge>
    <edge id=":I_7" function="internal">
        <lane id=":I_7_0" index="0" speed="9.26" length="6.96" shape="1410.40,598.40 1405.15,599.15 1403.73,600.00"/>
    </edge>
    <edge id=":I_17" function="internal">
        <lane id=":I_17_0" index="0" speed="9.26" length="12.40" shape="1403.73,600.00 1401.40,601.40 1399.15,605.15 1398.40,610.40"/>
    </edge>
    <edge id=":I_8" function="internal">
        <lane id=":I_8_0" index="0" speed="6.51" length="9.03" shape="1404.80,610.40 1405.15,607.95 1406.20,606.20 1407.95,605.15 1410.40,604.80"/>
    </edge>
    <edge id=":I_9" function="internal">
        <lane id=":I_9_0" index="0" speed="13.89" length="20.80" shape="1404.80,610.40 1404.80,589.60"/>
        <lane id=":I_9_1" index="1" speed="13.89" length="20.80" shape="1401.60,610.40 1401.60,589.60"/>
    </edge>
    <edge id=":I_11" function="internal">
        <lane id=":I_11_0" index="0" speed="9.26" length="6.96" shape="1401.60,610.40 1400.85,605.15 1400.00,603.73"/>
    </edge>
    <edge id=":I_18" function="internal">
        <lane id=":I_18_0" index="0" speed="9.26" length="12.40" shape="1400.00,603.73 1398.60,601.40 1394.85,599.15 1389.60,598.40"/>
    </edge>
    <edge id=":I_12" function="internal">
        <lane id=":I_12_0" index="0" speed="6.51" length="9.03" shape="1389.60,604.80 1392.05,605.15 1393.80,606.20 1394.85,607.95 1395.20,610.40"/>
    </edge>
    <edge id=":I_13" function="internal">
        <lane id=":I_13_0" index="0" speed="13.89" length="20.80" shape="1389.60,604.80 1410.40,604.80"/>
        <lane id=":I_13_1" index="1" speed="13.89" length="20.80" shape="1389.60,601.60 1410.40,601.60"/>
    </edge>
    <edge id=":I_15" function="internal">
        <lane id=":I_15_0" index="0" speed="9.26" length="6.96" shape="1389.60,601.60 1394.85,600.85 1396.27,600.00"/>
    </edge>
    <edge id=":I_19" function="internal">
        <lane id=":I_19_0" index="0" speed="9.26" length="12.40" shape="1396.27,600.00 1398.60,598.60 1400.85,594.85 1401.60,589.60"/>
    </edge>

    <edge id="eA_B" from="A" to="B" priority="-1">
        <lane id="eA_B_0" index="0" speed="13.89" length="83.20" shape="1306.40,704.80 1389.60,704.80"/>
        <lane id="eA_B_1" index="1" speed="13.89" length="83.20" shape="1306.40,701.60 1389.60,701.60"/>
    </edge>
    <edge id="eA_H" from="A" to="H" priority="-1">
        <lane id="eA_H_0" index="0" speed="13.89" length="83.20" shape="1304.80,693.60 1304.80,610.40"/>
        <lane id="eA_H_1" index="1" speed="13.89" length="83.20" shape="1301.60,693.60 1301.60,610.40"/>
    </edge>
    <edge id="eB_A" from="B" to="A" priority="-1">
        <lane id="eB_A_0" index="0" speed="13.89" length="83.20" shape="1389.60,695.20 1306.40,695.20"/>
        <lane id="eB_A_1" index="1" speed="13.89" length="83.20" shape="1389.60,698.40 1306.40,698.40"/>
    </edge>
    <edge id="eB_C" from="B" to="C" priority="-1">
        <lane id="eB_C_0" index="0" speed="13.89" length="83.20" shape="1410.40,704.80 1493.60,704.80"/>
        <lane id="eB_C_1" index="1" speed="13.89" length="83.20" shape="1410.40,701.60 1493.60,701.60"/>
    </edge>
    <edge id="eB_I" from="B" to="I" priority="-1">
        <lane id="eB_I_0" index="0" speed="13.89" length="79.20" shape="1404.80,689.60 1404.80,610.40"/>
        <lane id="eB_I_1" index="1" speed="13.89" length="79.20" shape="1401.60,689.60 1401.60,610.40"/>
    </edge>
    <edge id="eC_B" from="C" to="B" priority="-1">
        <lane id="eC_B_0" index="0" speed="13.89" length="83.20" shape="1493.60,695.20 1410.40,695.20"/>
        <lane id="eC_B_1" index="1" speed="13.89" length="83.20" shape="1493.60,698.40 1410.40,698.40"/>
    </edge>
    <edge id="eC_D" from="C" to="D" priority="-1">
        <lane id="eC_D_0" index="0" speed="13.89" length="83.20" shape="1504.80,693.60 1504.80,610.40"/>
        <lane id="eC_D_1" index="1" speed="13.89" length="83.20" shape="1501.60,693.60 1501.60,610.40"/>
    </edge>
    <edge id="eD_C" from="D" to="C" priority="-1">
        <lane id="eD_C_0" index="0" speed="13.89" length="83.20" shape="1495.20,610.40 1495.20,693.60"/>
        <lane id="eD_C_1" index="1" speed="13.89" length="83.20" shape="1498.40,610.40 1498.40,693.60"/>
    </edge>
    <edge id="eD_E" from="D" to="E" priority="-1">
        <lane id="eD_E_0" index="0" speed="13.89" length="83.20" shape="1504.80,589.60 1504.80,506.40"/>
        <lane id="eD_E_1" index="1" speed="13.89" length="83.20" shape="1501.60,589.60 1501.60,506.40"/>
    </edge>
    <edge id="eD_I" from="D" to="I" priority="-1">
        <lane id="eD_I_0" index="0" speed="13.89" length="79.20" shape="1489.60,595.20 1410.40,595.20"/>
        <lane id="eD_I_1" index="1" speed="13.89" length="79.20" shape="1489.60,598.40 1410.40,598.40"/>
    </edge>
    <edge id="eE_D" from="E" to="D" priority="-1">
        <lane id="eE_D_0" index="0" speed="13.89" length="83.20" shape="1495.20,506.40 1495.20,589.60"/>
        <lane id="eE_D_1" index="1" speed="13.89" length="83.20" shape="1498.40,506.40 1498.40,589.60"/>
    </edge>
    <edge id="eE_F" from="E" to="F" priority="-1">
        <lane id="eE_F_0" index="0" speed="13.89" length="83.20" shape="1493.60,495.20 1410.40,495.20"/>
        <lane id="eE_F_1" index="1" speed="13.89" length="83.20" shape="1493.60,498.40 1410.40,498.40"/>
    </edge>
    <edge id="eF_E" from="F" to="E" priority="-1">
        <lane id="eF_E_0" index="0" speed="13.89" length="83.20" shape="1410.40,504.80 1493.60,504.80"/>
        <lane id="eF_E_1" index="1" speed="13.89" length="83.20" shape="1410.40,501.60 1493.60,501.60"/>
    </edge>
    <edge id="eF_G" from="F" to="G" priority="-1">
        <lane id="eF_G_0" index="0" speed="13.89" length="83.20" shape="1389.60,495.20 1306.40,495.20"/>
        <lane id="eF_G_1" index="1" speed="13.89" length="83.20" shape="1389.60,498.40 1306.40,498.40"/>
    </edge>
    <edge id="eF_I" from="F" to="I" priority="-1">
        <lane id="eF_I_0" index="0" speed="13.89" length="79.20" shape="1395.20,510.40 1395.20,589.60"/>
        <lane id="eF_I_1" index="1" speed="13.89" length="79.20" shape="1398.40,510.40 1398.40,589.60"/>
    </edge>
    <edge id="eG_F" from="G" to="F" priority="-1">
        <lane id="eG_F_0" index="0" speed="13.89" length="83.20" shape="1306.40,504.80 1389.60,504.80"/>
        <lane id="eG_F_1" index="1" speed="13.89" length="83.20" shape="1306.40,501.60 1389.60,501.60"/>
    </edge>
    <edge id="eG_H" from="G" to="H" priority="-1">
        <lane id="eG_H_0" index="0" speed="13.89" length="83.20" shape="1295.20,506.40 1295.20,589.60"/>
        <lane id="eG_H_1" index="1" speed="13.89" length="83.20" shape="1298.40,506.40 1298.40,589.60"/>
    </edge>
    <edge id="eH_A" from="H" to="A" priority="-1">
        <lane id="eH_A_0" index="0" speed="13.89" length="83.20" shape="1295.20,610.40 1295.20,693.60"/>
        <lane id="eH_A_1" index="1" speed="13.89" length="83.20" shape="1298.40,610.40 1298.40,693.60"/>
    </edge>
    <edge id="eH_G" from="H" to="G" priority="-1">
        <lane id="eH_G_0" index="0" speed="13.89" length="83.20" shape="1304.80,589.60 1304.80,506.40"/>
        <lane id="eH_G_1" index="1" speed="13.89" length="83.20" shape="1301.60,589.60 1301.60,506.40"/>
    </edge>
    <edge id="eH_I" from="H" to="I" priority="-1">
        <lane id="eH_I_0" index="0" speed="13.89" length="79.20" shape="1310.40,604.80 1389.60,604.80"/>
        <lane id="eH_I_1" index="1" speed="13.89" length="79.20" shape="1310.40,601.60 1389.60,601.60"/>
    </edge>
    <edge id="eI_B" from="I" to="B" priority="-1">
        <lane id="eI_B_0" index="0" speed="13.89" length="79.20" shape="1395.20,610.40 1395.20,689.60"/>
        <lane id="eI_B_1" index="1" speed="13.89" length="79.20" shape="1398.40,610.40 1398.40,689.60"/>
    </edge>
    <edge id="eI_D" from="I" to="D" priority="-1">
        <lane id="eI_D_0" index="0" speed="13.89" length="79.20" shape="1410.40,604.80 1489.60,604.80"/>
        <lane id="eI_D_1" index="1" speed="13.89" length="79.20" shape="1410.40,601.60 1489.60,601.60"/>
    </edge>
    <edge id="eI_F" from="I" to="F" priority="-1">
        <lane id="eI_F_0" index="0" speed="13.89" length="79.20" shape="1404.80,589.60 1404.80,510.40"/>
        <lane id="eI_F_1" index="1" speed="13.89" length="79.20" shape="1401.60,589.60 1401.60,510.40"/>
    </edge>
    <edge id="eI_H" from="I" to="H" priority="-1">
        <lane id="eI_H_0" index="0" speed="13.89" length="79.20" shape="1389.60,595.20 1310.40,595.20"/>
        <lane id="eI_H_1" index="1" speed="13.89" length="79.20" shape="1389.60,598.40 1310.40,598.40"/>
    </edge>

    <tlLogic id="B" type="static" programID="0" offset="0">
        <phase duration="42" state="rrGGGGGg"/>
        <phase duration="3"  state="rryyyyyy"/>
        <phase duration="42" state="GGGrrrrr"/>
        <phase duration="3"  state="yyyrrrrr"/>
    </tlLogic>
    <tlLogic id="D" type="static" programID="0" offset="0">
        <phase duration="42" state="GGGGGgrr"/>
        <phase duration="3"  state="yyyyyyrr"/>
        <phase duration="42" state="GrrrrrGG"/>
        <phase duration="3"  state="yrrrrryy"/>
    </tlLogic>
    <tlLogic id="F" type="static" programID="0" offset="0">
        <phase duration="42" state="GGgrrGGG"/>
        <phase duration="3"  state="yyyrryyy"/>
        <phase duration="42" state="rrrGGGrr"/>
        <phase duration="3"  state="rrryyyrr"/>
    </tlLogic>
    <tlLogic id="H" type="static" programID="0" offset="0">
        <phase duration="42" state="GGgrrGGG"/>
        <phase duration="3"  state="yyyrryyy"/>
        <phase duration="42" state="rrrGGGrr"/>
        <phase duration="3"  state="rrryyyrr"/>
    </tlLogic>
    <tlLogic id="gneJ26" type="static" programID="0" offset="0">
        <phase duration="42" state="GGGgrrrrGGGgrrrr"/>
        <phase duration="3"  state="yyyyrrrryyyyrrrr"/>
        <phase duration="42" state="rrrrGGGgrrrrGGGg"/>
        <phase duration="3"  state="rrrryyyyrrrryyyy"/>
    </tlLogic>
    <tlLogic id="gneJ26" type="static" programID="1" offset="0">
        <phase duration="42" state="GGGgrrrrGGGgrrrr"/>
        <phase duration="3"  state="yyyyrrrryyyyrrrr"/>
        <phase duration="42" state="rrrrGGGgrrrrGGGg"/>
        <phase duration="3"  state="rrrryyyyrrrryyyy"/>
    </tlLogic>

    <junction id="A" type="priority" x="1300.00" y="700.00" incLanes="eH_A_0 eH_A_1 eB_A_0 eB_A_1" intLanes=":A_0_0 :A_1_0 :A_2_0 :A_3_0" shape="1293.60,693.60 1306.40,693.60 1306.40,706.40 1302.49,706.04 1299.29,704.98 1296.80,703.20 1295.02,700.71 1293.96,697.51">
        <request index="0" response="0000" foes="0000" cont="0"/>
        <request index="1" response="0000" foes="0000" cont="0"/>
        <request index="2" response="0000" foes="0000" cont="0"/>
        <request index="3" response="0000" foes="0000" cont="0"/>
    </junction>
    <junction id="B" type="traffic_light" x="1400.00" y="700.00" incLanes="eI_B_0 eI_B_1 eC_B_0 eC_B_1 eA_B_0 eA_B_1" intLanes=":B_0_0 :B_1_0 :B_2_0 :B_3_0 :B_3_1 :B_5_0 :B_5_1 :B_8_0" shape="1393.60,689.60 1406.40,689.60 1406.84,691.82 1407.40,692.60 1408.18,693.16 1409.18,693.49 1410.40,693.60 1410.40,706.40 1389.60,706.40 1389.60,693.60 1391.82,693.16 1392.60,692.60 1393.16,691.82 1393.49,690.82">
        <request index="0" response="00011000" foes="00011000" cont="0"/>
        <request index="1" response="11111000" foes="11111000" cont="0"/>
        <request index="2" response="00000000" foes="00000000" cont="0"/>
        <request index="3" response="00000000" foes="10000011" cont="0"/>
        <request index="4" response="00000000" foes="10000011" cont="0"/>
        <request index="5" response="00000000" foes="00000010" cont="0"/>
        <request index="6" response="00000000" foes="00000010" cont="0"/>
        <request index="7" response="00011000" foes="00011010" cont="1"/>
    </junction>
    <junction id="C" type="priority" x="1500.00" y="700.00" incLanes="eD_C_0 eD_C_1 eB_C_0 eB_C_1" intLanes=":C_0_0 :C_1_0 :C_2_0 :C_3_0" shape="1493.60,693.60 1506.40,693.60 1506.04,697.51 1504.98,700.71 1503.20,703.20 1500.71,704.98 1497.51,706.04 1493.60,706.40">
        <request index="0" response="0000" foes="0000" cont="0"/>
        <request index="1" response="0000" foes="0000" cont="0"/>
        <request index="2" response="0000" foes="0000" cont="0"/>
        <request index="3" response="0000" foes="0000" cont="0"/>
    </junction>
    <junction id="D" type="traffic_light" x="1500.00" y="600.00" incLanes="eE_D_0 eE_D_1 eC_D_0 eC_D_1 eI_D_0 eI_D_1" intLanes=":D_0_0 :D_1_0 :D_1_1 :D_3_0 :D_3_1 :D_8_0 :D_6_0 :D_7_0" shape="1493.60,589.60 1506.40,589.60 1506.40,610.40 1493.60,610.40 1493.16,608.18 1492.60,607.40 1491.82,606.84 1490.82,606.51 1489.60,606.40 1489.60,593.60 1491.82,593.16 1492.60,592.60 1493.16,591.82 1493.49,590.82">
        <request index="0" response="00000000" foes="00000000" cont="0"/>
        <request index="1" response="00000000" foes="11100000" cont="0"/>
        <request index="2" response="00000000" foes="11100000" cont="0"/>
        <request index="3" response="00000000" foes="10000000" cont="0"/>
        <request index="4" response="00000000" foes="10000000" cont="0"/>
        <request index="5" response="00000110" foes="10000110" cont="1"/>
        <request index="6" response="00000110" foes="00000110" cont="0"/>
        <request index="7" response="00111110" foes="00111110" cont="0"/>
    </junction>
    <junction id="E" type="priority" x="1500.00" y="500.00" incLanes="eD_E_0 eD_E_1 eF_E_0 eF_E_1" intLanes=":E_0_0 :E_1_0 :E_2_0 :E_3_0" shape="1506.40,506.40 1493.60,506.40 1493.60,493.60 1497.51,493.96 1500.71,495.02 1503.20,496.80 1504.98,499.29 1506.04,502.49">
        <request index="0" response="0000" foes="0000" cont="0"/>
        <request index="1" response="0000" foes="0000" cont="0"/>
        <request index="2" response="0000" foes="0000" cont="0"/>
        <request index="3" response="0000" foes="0000" cont="0"/>
    </junction>
    <junction id="F" type="traffic_light" x="1400.00" y="500.00" incLanes="eE_F_0 eE_F_1 eI_F_0 eI_F_1 eG_F_0 eG_F_1" intLanes=":F_0_0 :F_0_1 :F_8_0 :F_3_0 :F_4_0 :F_5_0 :F_6_0 :F_6_1" shape="1410.40,493.60 1410.40,506.40 1408.18,506.84 1407.40,507.40 1406.84,508.18 1406.51,509.18 1406.40,510.40 1393.60,510.40 1393.16,508.18 1392.60,507.40 1391.82,506.84 1390.82,506.51 1389.60,506.40 1389.60,493.60">
        <request index="0" response="00000000" foes="00010000" cont="0"/>
        <request index="1" response="00000000" foes="00010000" cont="0"/>
        <request index="2" response="11000000" foes="11010000" cont="1"/>
        <request index="3" response="11000000" foes="11000000" cont="0"/>
        <request index="4" response="11000111" foes="11000111" cont="0"/>
        <request index="5" response="00000000" foes="00000000" cont="0"/>
        <request index="6" response="00000000" foes="00011100" cont="0"/>
        <request index="7" response="00000000" foes="00011100" cont="0"/>
    </junction>
    <junction id="G" type="priority" x="1300.00" y="500.00" incLanes="eF_G_0 eF_G_1 eH_G_0 eH_G_1" intLanes=":G_0_0 :G_1_0 :G_2_0 :G_3_0" shape="1306.40,493.60 1306.40,506.40 1293.60,506.40 1293.96,502.49 1295.02,499.29 1296.80,496.80 1299.29,495.02 1302.49,493.96">
        <request index="0" response="0000" foes="0000" cont="0"/>
        <request index="1" response="0000" foes="0000" cont="0"/>
        <request index="2" response="0000" foes="0000" cont="0"/>
        <request index="3" response="0000" foes="0000" cont="0"/>
    </junction>
    <junction id="H" type="traffic_light" x="1300.00" y="600.00" incLanes="eG_H_0 eG_H_1 eI_H_0 eI_H_1 eA_H_0 eA_H_1" intLanes=":H_0_0 :H_0_1 :H_8_0 :H_3_0 :H_4_0 :H_5_0 :H_6_0 :H_6_1" shape="1293.60,589.60 1306.40,589.60 1306.84,591.82 1307.40,592.60 1308.18,593.16 1309.18,593.49 1310.40,593.60 1310.40,606.40 1308.18,606.84 1307.40,607.40 1306.84,608.18 1306.51,609.18 1306.40,610.40 1293.60,610.40">
        <request index="0" response="00000000" foes="00010000" cont="0"/>
        <request index="1" response="00000000" foes="00010000" cont="0"/>
        <request index="2" response="11000000" foes="11010000" cont="1"/>
        <request index="3" response="11000000" foes="11000000" cont="0"/>
        <request index="4" response="11000111" foes="11000111" cont="0"/>
        <request index="5" response="00000000" foes="00000000" cont="0"/>
        <request index="6" response="00000000" foes="00011100" cont="0"/>
        <request index="7" response="00000000" foes="00011100" cont="0"/>
    </junction>
    <junction id="I" type="traffic_light" x="1400.00" y="600.00" incLanes="eF_I_0 eF_I_1 eD_I_0 eD_I_1 eB_I_0 eB_I_1 eH_I_0 eH_I_1" intLanes=":I_0_0 :I_1_0 :I_1_1 :I_16_0 :I_4_0 :I_5_0 :I_5_1 :I_17_0 :I_8_0 :I_9_0 :I_9_1 :I_18_0 :I_12_0 :I_13_0 :I_13_1 :I_19_0" shape="1393.60,589.60 1406.40,589.60 1406.84,591.82 1407.40,592.60 1408.18,593.16 1409.18,593.49 1410.40,593.60 1410.40,606.40 1408.18,606.84 1407.40,607.40 1406.84,608.18 1406.51,609.18 1406.40,610.40 1393.60,610.40 1393.16,608.18 1392.60,607.40 1391.82,606.84 1390.82,606.51 1389.60,606.40 1389.60,593.60 1391.82,593.16 1392.60,592.60 1393.16,591.82 1393.49,590.82">
        <request index="0"  response="0000000000000000" foes="0000000001100000" cont="0"/>
        <request index="1"  response="1000000010000000" foes="1111100011100000" cont="0"/>
        <request index="2"  response="1000000010000000" foes="1111100011100000" cont="0"/>
        <request index="3"  response="1000011010000000" foes="1110011011100000" cont="1"/>
        <request index="4"  response="0000011000000000" foes="0000011000000000" cont="0"/>
        <request index="5"  response="0000111000001111" foes="1000111000001111" cont="0"/>
        <request index="6"  response="0000111000001111" foes="1000111000001111" cont="0"/>
        <request index="7"  response="0110111000001110" foes="0110111000001110" cont="1"/>
        <request index="8"  response="0000000000000000" foes="0110000000000000" cont="0"/>